Version 4
SHEET 1 880 680
WIRE 128 -288 -64 -288
WIRE -176 -272 -512 -272
WIRE -624 -256 -864 -256
WIRE -864 -160 -864 -256
WIRE -864 160 -864 -80
WIRE -352 160 -864 160
WIRE 128 160 128 -288
WIRE 128 160 -352 160
WIRE -352 304 -352 160
FLAG -352 304 0
SYMBOL Voltage -864 -176 R0
SYMATTR InstName V1
SYMATTR Value 1
SYMBOL AutoGenerated/diffusive_biolek -128 -272 R0
SYMATTR InstName U1
SYMBOL AutoGenerated/drift_biolek -576 -256 R0
SYMATTR InstName U2
TEXT -576 -656 Left 2 !.tran 1
