Version 4
SHEET 1 1488 1104
WIRE 320 192 304 192
WIRE 448 192 320 192
WIRE -128 208 -144 208
WIRE 208 208 -128 208
WIRE 944 208 656 208
WIRE 448 224 448 192
WIRE 560 224 448 224
WIRE 448 240 448 224
WIRE -144 528 -144 208
WIRE 944 544 944 208
WIRE -144 704 -144 608
WIRE 944 720 944 624
WIRE -144 896 -144 784
WIRE 448 896 -144 896
WIRE 944 896 944 800
WIRE 944 896 448 896
WIRE 448 1088 448 896
FLAG 448 1088 0
FLAG -128 208 pre
FLAG 944 208 post
SYMBOL AutoGenerated/drift_biolek 256 208 R0
SYMATTR InstName U1
SYMBOL AutoGenerated/Diffusive_memristor 608 224 R0
SYMATTR InstName U2
SYMBOL Voltage 944 528 R0
SYMATTR InstName V1
SYMATTR Value PULSE(0 3 {Tpost} 0 0 {Ton_1} {T} 50)
SYMBOL Voltage 944 704 R0
SYMATTR InstName V2
SYMATTR Value PULSE(0 2 {Tpost+Ton_1} 0 0 {Ton_2} {T} 50)
SYMBOL Voltage -144 512 R0
SYMATTR InstName V3
SYMATTR Value PULSE(0 4 {Tpre} 0 0 {Ton_1} {T} 50)
SYMBOL Voltage -144 688 R0
SYMATTR InstName V4
SYMATTR Value PULSE(0 2 {Tpre+Ton_1} 0 0 {Ton_2} {T} 50)
TEXT 152 1008 Left 2 !.param T=50u deltaT=10u Tpre=T Tpost=Tpre+deltaT Ton_1=10u Ton_2=15u
TEXT -168 1000 Left 2 !.tran {50*T}
