Version 4
SHEET 1 880 680
WIRE 368 192 -16 192
WIRE -16 240 -16 192
WIRE 752 256 624 256
WIRE 368 272 368 192
WIRE 512 272 368 272
WIRE 672 288 624 288
WIRE 672 320 672 288
WIRE -16 368 -16 320
WIRE 672 432 672 400
WIRE -16 528 -16 448
WIRE 368 528 -16 528
WIRE 752 528 752 256
WIRE 752 528 368 528
WIRE 368 592 368 528
FLAG 368 592 0
FLAG 672 432 0
SYMBOL AutoGenerated/drift_biolek 560 272 R0
SYMATTR InstName U1
SYMBOL Voltage -16 352 R0
SYMATTR InstName V1
SYMATTR Value PULSE(0 4 0 0 0 25u 50u 50)
SYMBOL Res 656 304 R0
SYMATTR InstName R1
SYMATTR Value 5k
SYMBOL Voltage -16 224 R0
SYMATTR InstName V2
SYMATTR Value PULSE(0 -4 2500u 0 0 25u 50u 50)
TEXT 112 160 Left 2 !.tran 5000u
