Version 4
SHEET 1 880 680
WIRE 576 352 416 352
WIRE 320 368 80 368
WIRE 80 416 80 368
WIRE 80 544 80 496
WIRE 272 544 80 544
WIRE 576 544 576 352
WIRE 576 544 272 544
WIRE 272 576 272 544
FLAG 272 576 0
SYMBOL AutoGenerated/K7 368 368 R0
SYMATTR InstName K7
SYMBOL Voltage 80 400 R0
SYMATTR InstName V1
SYMATTR Value PULSE(0 1 0 0 0 5m 10m)
TEXT 144 256 Left 2 !#.dc V1 -1 1 0.01
TEXT 128 312 Left 2 !.tran 200m
