Version 4
SHEET 1 2508 1160
WIRE 544 192 464 192
WIRE 208 208 144 208
WIRE 944 208 656 208
WIRE 400 224 320 224
WIRE 544 224 400 224
WIRE -128 240 -144 240
WIRE 208 240 -128 240
WIRE -144 528 -144 240
WIRE 944 544 944 208
WIRE -144 704 -144 608
WIRE 944 720 944 624
WIRE -144 896 -144 784
WIRE 448 896 -144 896
WIRE 944 896 944 800
WIRE 944 896 448 896
WIRE 448 928 448 896
FLAG 448 928 0
FLAG -128 240 pre
FLAG 944 208 post
FLAG 144 208 Wdrift
FLAG 464 192 Wdiff
FLAG 400 224 middle
SYMBOL AutoGenerated/drift_biolek 272 224 R180
SYMATTR InstName U1
SYMBOL Voltage 944 528 R0
WINDOW 123 0 0 Left 0
WINDOW 39 0 0 Left 0
SYMATTR InstName V1
SYMATTR Value PULSE(0 3 {shift+deltaT} {Trf} {Trf} {Ton_1} {T} {N})
SYMBOL Voltage 944 704 R0
WINDOW 123 0 0 Left 0
WINDOW 39 0 0 Left 0
SYMATTR InstName V2
SYMATTR Value PULSE(0 2 {shift+Ton_1+deltaT+Trf} {Trf} {Trf} {Ton_2} {T} {N})
SYMBOL Voltage -144 512 R0
WINDOW 3 24 44 Left 2
WINDOW 123 0 0 Left 0
WINDOW 39 0 0 Left 0
SYMATTR Value PULSE(0 4 {shift} {Trf} {Trf} {Ton_1} {T} {N})
SYMATTR InstName V3
SYMBOL Voltage -144 688 R0
WINDOW 3 24 44 Left 2
WINDOW 123 0 0 Left 0
WINDOW 39 0 0 Left 0
SYMATTR Value PULSE(0 2 {shift+Ton_1+Trf} {Trf} {Trf} {Ton_2} {T} {N})
SYMATTR InstName V4
SYMBOL AutoGenerated/diffusive_biolek 608 208 R180
SYMATTR InstName U2
TEXT -120 952 Left 2 !.tran {10*T}
TEXT -152 1040 Left 2 !.step param x list -7m -6.5m -6m -5.5m -5m -4.5m -4m -3.5m -3m -2.5m -2m -1.5m -1m -0.75m -0.5m -0.25m -0.01m +0.01m 0.25m 0.5m 0.75m 1m 1.5m 2m 2.25m 2.5m 2.75m 3m 3.5m 4m 4.5m 5m 5.5m 6m 6.5m 7m
TEXT -120 984 Left 2 !.param Trf=5u deltaT=x*(1+(Ton_1+Ton_2+Trf*3)/abs(x)) Ton_1=150u Ton_2=0.5m T=40m shift=T N=1
TEXT 104 952 Left 2 !.meas tran wdrift FIND V(wdrift) at 1.5*T
