Version 4
SHEET 1 1668 1160
WIRE 208 208 144 208
WIRE 944 208 656 208
WIRE 400 224 320 224
WIRE 544 224 400 224
WIRE -128 240 -144 240
WIRE 208 240 -128 240
WIRE 688 240 656 240
WIRE -144 528 -144 240
WIRE 944 544 944 208
WIRE -144 704 -144 608
WIRE 944 720 944 624
WIRE -144 896 -144 784
WIRE 448 896 -144 896
WIRE 944 896 944 800
WIRE 944 896 448 896
WIRE 448 928 448 896
FLAG 448 928 0
FLAG -128 240 pre
FLAG 944 208 post
FLAG 144 208 Wdrift
FLAG 688 240 Wdiff
FLAG 400 224 middle
SYMBOL AutoGenerated/drift_biolek 272 224 R180
SYMATTR InstName U1
SYMBOL Voltage 944 528 R0
WINDOW 123 0 0 Left 0
WINDOW 39 0 0 Left 0
SYMATTR InstName V1
SYMATTR Value PULSE(0 3 {shift+deltaT} {Trf} {Trf} {Ton_1} {T} 50)
SYMBOL Voltage 944 704 R0
WINDOW 123 0 0 Left 0
WINDOW 39 0 0 Left 0
SYMATTR InstName V2
SYMATTR Value PULSE(0 2 {shift+Ton_1+deltaT+5u} {Trf} {Trf} {Ton_2} {T} 50)
SYMBOL Voltage -144 512 R0
WINDOW 3 24 44 Left 2
WINDOW 123 0 0 Left 0
WINDOW 39 0 0 Left 0
SYMATTR Value PULSE(0 4 {shift} {Trf} {Trf} {Ton_1} {T} 50)
SYMATTR InstName V3
SYMBOL Voltage -144 688 R0
WINDOW 3 24 44 Left 2
WINDOW 123 0 0 Left 0
WINDOW 39 0 0 Left 0
SYMATTR Value PULSE(0 2 {shift+Ton_1+5u} {Trf} {Trf} {Ton_2} {T} 50)
SYMATTR InstName V4
SYMBOL AutoGenerated/diffusive_biolek 592 224 R0
SYMATTR InstName U2
TEXT -168 1000 Left 2 !.tran {10*T}
TEXT 160 1040 Left 2 !.step param deltaT -6m 6m 0.5m
TEXT 176 1008 Left 2 !.param Trf=5u deltaT=+(0.01m+Ton_1+Ton_2+Trf*3) Ton_1=50u Ton_2=0.5m T=20m shift=10m
TEXT 104 952 Left 2 !.meas tran res1 FIND V(drift) at 1m
