Version 4
SHEET 1 1528 1160
WIRE 320 192 304 192
WIRE 448 192 320 192
WIRE -128 208 -144 208
WIRE 208 208 -128 208
WIRE 944 208 656 208
WIRE 400 224 320 224
WIRE 448 224 448 192
WIRE 544 224 448 224
WIRE 560 224 544 224
WIRE 752 240 656 240
WIRE 752 304 752 240
WIRE 400 320 400 224
WIRE 752 352 752 304
WIRE 400 368 400 320
WIRE -144 528 -144 208
WIRE 944 544 944 208
WIRE -144 704 -144 608
WIRE 944 720 944 624
WIRE -144 896 -144 784
WIRE 448 896 -144 896
WIRE 944 896 944 800
WIRE 944 896 448 896
WIRE 448 1088 448 896
FLAG 448 1088 0
FLAG -128 208 pre
FLAG 944 208 post
FLAG 400 448 0
FLAG 752 432 0
FLAG 400 320 Wdrift
FLAG 752 304 Wdiff
SYMBOL AutoGenerated/drift_biolek 256 208 R0
SYMATTR InstName U1
SYMBOL Voltage 944 528 R0
SYMATTR InstName V1
SYMATTR Value PULSE(0 3 {T+deltaT} 0 0 {Ton_1} {T} 50)
SYMBOL Voltage 944 704 R0
SYMATTR InstName V2
SYMATTR Value PULSE(0 2 {T+Ton_1+deltaT} 0 0 {Ton_2} {T} 50)
SYMBOL Voltage -144 512 R0
SYMATTR InstName V3
SYMATTR Value PULSE(0 4 {T} 0 0 {Ton_1} {T} 50)
SYMBOL Voltage -144 688 R0
SYMATTR InstName V4
SYMATTR Value PULSE(0 2 {T+Ton_1} 0 0 {Ton_2} {T} 50)
SYMBOL Res 384 352 R0
SYMATTR InstName R1
SYMATTR Value 1K
SYMBOL Res 736 336 R0
SYMATTR InstName R2
SYMATTR Value 1K
SYMBOL AutoGenerated/diffusive_biolek 592 224 R0
SYMATTR InstName U2
TEXT 152 1008 Left 2 !.param deltaT=10u Ton_1=50u Ton_2=0.5m T=((Ton_1+Ton_2)*2)
TEXT -168 1000 Left 2 !.tran {51*T}
TEXT 104 1136 Left 2 !.step param deltaT -30u 30u 20u
