Version 4
SHEET 1 880 680
WIRE 384 288 128 288
WIRE 576 320 560 320
WIRE 384 336 384 288
WIRE 464 336 384 336
WIRE 576 336 576 320
WIRE 688 336 576 336
WIRE 128 448 128 368
WIRE 416 448 128 448
WIRE 688 448 688 336
WIRE 688 448 416 448
WIRE 416 496 416 448
FLAG 416 496 0
SYMBOL Voltage 128 272 R0
SYMATTR InstName V1
SYMATTR Value SINE(0 1 10 0 0 0)
SYMBOL AutoGenerated/Strukov_memristor 512 336 R0
SYMATTR InstName U1
TEXT 312 208 Left 2 !.tran 0 0.2s
